BEGIN BULK
CORD2R         1       0      0.      0.      0.      0.      0.      1.+FEMAPC1
+FEMAPC1      1.      0.      1.        
$<--1--><---2--><---3--><---4--><---5--><---6--><---7--><---8--><---9--><--10-->
PCOMP    100001                                   68.
         101     .005       0.     YES
         104     .0029     60.     YES   104     .0029   -60.     YES
         104     .0029      0.     YES   104     .0029     0.     YES
         104     .0029    -60.     YES   104     .0029    60.     YES
         104     .0029     60.     YES   104     .0029   -60.     YES
         104     .0029      0.     YES   103     .003      0.     YES
         103     .003     -60.     YES   103     .003     60.     YES
         103     .003      60.     YES   103     .003    -60.     YES
         103     .003       0.     YES   104     .0029     0.     YES
         104     .0029    -60.     YES   104     .0029    60.     YES
         104     .0029     60.     YES   104     .0029   -60.     YES
         104     .0029      0.     YES   104     .0029     0.     YES
         104     .0029    -60.     YES   104     .0029    60.     YES
         102     .005       0.     YES  
$<--1--><---2--><---3--><---4--><---5--><---6--><---7--><---8--><---9--><--10-->     
MAT8    1000001 4.084+7 2.348+6  .25    768843. 768843. 829088. .0748
        1.907-6 1.04-5    68.
MAT8    1000002 7.87+7  6.8+5    .20    550000. 550000. 229795. .065
        -7.04-7 1.848-5   68.
$<--1--><---2--><---3--><---4--><---5--><---6--><---7--><---8--><---9--><--10--> 
$ FM73 Film Adhesive
MAT1     101    310000. 122000. .41     .042    4.1-5   68.
$
$ Araldite LY3505/XB3403 (Replication Material)
MAT1     102    536000. 191429. .4      .04     3.43-5  68.
$
$<--1--><---2--><---3--><---4--><---5--><---6--><---7--><---8--><---9--><--10-->
GRID     100001  1      12.1651 .39654  .92764   1                              
GRID     100002  1      12.1077 .297172 .918436  1                              
GRID     100003  1      12.0503 .197804 .909399  1                              
GRID     100004  1      11.993  .098434 .900528  1                              
GRID     100005  1      12.2331 .514432 .938777  1                              
GRID     100006  1      12.3012 .63232  .950148  1                              
GRID     100007  1      10.1649 .112754 .645926  1                              
GRID     100008  1      10.2305 .226311 .65456   1                              
GRID     100009  1      10.296  .339863 .66341   1                              
GRID     100010  1      10.3616 .45341  .672477  1     
GRID     111516  1      2.02388 -2.0422 .0514731 1                              
GRID     111517  1      2.19701 -1.85465.0514807 1                              
GRID     111596  1      2.35274 -1.65264.0514807 1                              
GRID     111012  1      12.4982 -.212932.978689  1                              
GRID     111595  1      12.4928 -.425897.978696  1                              
GRID     111515  1      12.4837 -.638648.978696  1                              
GRID     111597  1      12.4742 -.803269.978696  1                              
GRID     111013  1      12.4539 -1.07266.978696  1                              
GRID     111514  1      12.4278 -1.34158.978696  1                              
GRID     111598  1      12.3959 -1.60983.978696  1                       
CQUAD4   121989  101     111516  111596  111595  111517  1                 
CQUAD4   121990  101     111596  111012  111517  111595  1                 
CQUAD4   121991  101     111515  111597  111596  111516  1                 
CQUAD4   121992  101     111597  111013  111012  111596  1                 
CQUAD4   121993  101     111514  111598  111597  111515  1                 
CQUAD4   121994  101     111598  111012  111013  111597  1                 
CQUAD4   121995  101     111517  111595  111598  111514  1                 
CQUAD4   121996  101     111595  111517  111012  111598  1                                                                                           
CTRIA3   100001  101     100001  100006  100008  1                         
CTRIA3   100002  101     100005  100003  100010  1                         
CTRIA3   100003  101     100006  100007  100009  1                         
CTRIA3   100004  101     100007  100003  100010  1                         
CTRIA3   100005  101     100009  100007  100005  1                         
CTRIA3   100006  101     100010  100002  100008  1                         
CTRIA3   100007  101     100003  100005  100009  1                         
CTRIA3   100008  101     100004  100009  100010  1                         
CTRIA3   100009  101     100007  100003  100001  1                         
CTRIA3   100010  101     100005  100003  100010  1                         
