BEGIN BULK
CORD2R  1       0        0.      0.      0.      0.      0.      1.     +FEMAPC1
+FEMAPC1 1.      0.      1.                                                     
MAT1    101      310000. 122000. .41     .042    4.1-5   68.                    
MAT1    102      536000. 191429. .4      .04     3.43-5  68.                    
PCOMP   100001           0.                      68.                            
        101      .005    0.         YES                                         
        104      .0029   60.        YES 104      .0029   -60.       YES         
        104      .0029   0.         YES 104      .0029   0.         YES         
        104      .0029   -60.       YES 104      .0029   60.        YES         
        104      .0029   60.        YES 104      .0029   -60.       YES         
        104      .0029   0.         YES 103      .003    0.         YES         
        103      .003    -60.       YES 103      .003    60.        YES         
        103      .003    60.        YES 103      .003    -60.       YES         
        103      .003    0.         YES 104      .0029   0.         YES         
        104      .0029   -60.       YES 104      .0029   60.        YES         
        104      .0029   60.        YES 104      .0029   -60.       YES         
        104      .0029   0.         YES 104      .0029   0.         YES         
        104      .0029   -60.       YES 104      .0029   60.        YES         
        102      .005    0.         YES                                         
MAT8    1000001  4.084+72348000. .25     768843. 768843. 829088. .0748          
         1.907-6 1.04-5  68.                                                    
MAT8    1000002  7.87+7  680000. .2      550000. 550000. 229795. .065           
         -7.04-7 1.848-5 68.                                                    
PCOMP   100002           0.                      68.                            
        101      .005    0.         YES                                         
        1000003 .0028612 60.        YES 1000003 .0028612 -60.       YES         
        1000003 .0028612 0.         YES 1000003 .0028612 0.         YES         
        1000003 .0028612 -60.       YES 1000003 .0028612 60.        YES         
        1000003 .0028612 60.        YES 1000003 .0028612 -60.       YES         
        1000003 .0028612 0.         YES 1000004 .0029885 0.         YES         
        1000004 .0029885 -60.       YES 1000004 .0029885 60.        YES         
        1000004 .0029885 60.        YES 1000004 .0029885 -60.       YES         
        1000004 .0029885 0.         YES 1000003 .0028612 0.         YES         
        1000003 .0028612 -60.       YES 1000003 .0028612 60.        YES         
        1000003 .0028612 60.        YES 1000003 .0028612 -60.       YES         
        1000003 .0028612 0.         YES 1000003 .0028612 0.         YES         
        1000003 .0028612 -60.       YES 1000003 .0028612 60.        YES         
        102      .005823 0.         YES                                         
MAT8    1000003  7.968+7681783.7.1978396561154.3561154.3280577.1.0652414        
        -7.053-71.9284-5 68.                                                    
MAT8    1000004 4.1372+72411527..2439774 789620. 789620. 394810..0751733        
        1.9021-6 1.003-5 68.                                                    
PCOMP   100003           0.                      68.                            
        101      .005    0.         YES                                         
        1000005 .0028611 60.        YES 1000005 .0028611 -60.       YES         
        1000005 .0028611 0.         YES 1000005 .0028611 0.         YES         
        1000005 .0028611 -60.       YES 1000005 .0028611 60.        YES         
        1000005 .0028611 60.        YES 1000005 .0028611 -60.       YES         
        1000005 .0028611 0.         YES 1000006 .0029883 0.         YES         
        1000006 .0029883 -60.       YES 1000006 .0029883 60.        YES         
        1000006 .0029883 60.        YES 1000006 .0029883 -60.       YES         
        1000006 .0029883 0.         YES 1000005 .0028611 0.         YES         
        1000005 .0028611 -60.       YES 1000005 .0028611 60.        YES         
        1000005 .0028611 60.        YES 1000005 .0028611 -60.       YES         
        1000005 .0028611 0.         YES 1000005 .0028611 0.         YES         
        1000005 .0028611 -60.       YES 1000005 .0028611 60.        YES         
        102     .0058397 0.         YES                                         
MAT8    1000005 7.9684+7681791.5.1978315561193.9561193.9280596.9.0652425        
        -7.053-71.9283-5 68.                                                    
MAT8    1000006 4.1374+72411829..2439715789719.5789719.5394859.7.0751751        
        1.9021-61.0029-5 68.                                                    
PCOMP   100004           0.                      68.                            
        101      .005    0.         YES                                         
        1000007  .002857 60.        YES 1000007  .002857 -60.       YES         
        1000007  .002857 0.         YES 1000007  .002857 0.         YES         
        1000007  .002857 -60.       YES 1000007  .002857 60.        YES         
        1000007  .002857 60.        YES 1000007  .002857 -60.       YES         
        1000007  .002857 0.         YES 1000008 .0029835 0.         YES         
        1000008 .0029835 -60.       YES 1000008 .0029835 60.        YES         
        1000008 .0029835 60.        YES 1000008 .0029835 -60.       YES         
        1000008 .0029835 0.         YES 1000007  .002857 0.         YES         
        1000007  .002857 -60.       YES 1000007  .002857 60.        YES         
        1000007  .002857 60.        YES 1000007  .002857 -60.       YES         
        1000007  .002857 0.         YES 1000007  .002857 0.         YES         
        1000007  .002857 -60.       YES 1000007  .002857 60.        YES         
        102     .0059393 0.         YES                                         
MAT8    1000007 7.9795+7682021.5.1975905562373.1562373.1281186.5 .065276        
        -7.056-71.9248-5 68.                                                    
MAT8    1000008 4.1441+72420850..2437967792694.5792694.5396347.2.0752299        
        1.9014-69.9827-6 68.                                                    
PCOMP   100005           0.                      68.                            
        101      .005    0.         YES                                         
        1000009 .0028565 60.        YES 1000009 .0028565 -60.       YES         
        1000009 .0028565 0.         YES 1000009 .0028565 0.         YES         
        1000009 .0028565 -60.       YES 1000009 .0028565 60.        YES         
        1000009 .0028565 60.        YES 1000009 .0028565 -60.       YES         
        1000009 .0028565 0.         YES 1000010 .0029829 0.         YES         
        1000010 .0029829 -60.       YES 1000010 .0029829 60.        YES         
        1000010 .0029829 60.        YES 1000010 .0029829 -60.       YES         
        1000010 .0029829 0.         YES 1000009 .0028565 0.         YES         
        1000009 .0028565 -60.       YES 1000009 .0028565 60.        YES         
        1000009 .0028565 60.        YES 1000009 .0028565 -60.       YES         
        1000009 .0028565 0.         YES 1000009 .0028565 0.         YES         
        1000009 .0028565 -60.       YES 1000009 .0028565 60.        YES         
        102      .006012 0.         YES                                         
MAT8    1000009 7.9809+7682049.2.1975615562514.8562514.8281257.4 .06528         
        -7.056-71.9244-5 68.                                                    
MAT8    1000010 4.1449+72421940..2437757793053.8793053.8396526.9.0752365        
        1.9013-69.9771-6 68.                                                    
PCOMP   100006           0.                      68.                            
        101      .005    0.         YES                                         
        1000011 .0028568 60.        YES 1000011 .0028568 -60.       YES         
        1000011 .0028568 0.         YES 1000011 .0028568 0.         YES         
        1000011 .0028568 -60.       YES 1000011 .0028568 60.        YES         
        1000011 .0028568 60.        YES 1000011 .0028568 -60.       YES         
        1000011 .0028568 0.         YES 1000012 .0029832 0.         YES         
        1000012 .0029832 -60.       YES 1000012 .0029832 60.        YES         
        1000012 .0029832 60.        YES 1000012 .0029832 -60.       YES         
        1000012 .0029832 0.         YES 1000011 .0028568 0.         YES         
        1000011 .0028568 -60.       YES 1000011 .0028568 60.        YES         
        1000011 .0028568 60.        YES 1000011 .0028568 -60.       YES         
        1000011 .0028568 0.         YES 1000011 .0028568 0.         YES         
        1000011 .0028568 -60.       YES 1000011 .0028568 60.        YES         
        102      .005966 0.         YES                                         
MAT8    1000011  7.98+7 682031.7.1975799562425.2562425.2281212.6.0652775        
        -7.056-71.9246-5 68.                                                    
MAT8    1000012 4.1443+72421250. .243789792826.4792826.4396413.2.0752323        
        1.9014-69.9806-6 68.                                                    
PCOMP   100007           0.                      68.                            
        101      .005    0.         YES                                         
        1000013 .0028568 60.        YES 1000013 .0028568 -60.       YES         
        1000013 .0028568 0.         YES 1000013 .0028568 0.         YES         
        1000013 .0028568 -60.       YES 1000013 .0028568 60.        YES         
        1000013 .0028568 60.        YES 1000013 .0028568 -60.       YES         
        1000013 .0028568 0.         YES 1000014 .0029833 0.         YES         
        1000014 .0029833 -60.       YES 1000014 .0029833 60.        YES         
        1000014 .0029833 60.        YES 1000014 .0029833 -60.       YES         
        1000014 .0029833 0.         YES 1000013 .0028568 0.         YES         
        1000013 .0028568 -60.       YES 1000013 .0028568 60.        YES         
        1000013 .0028568 60.        YES 1000013 .0028568 -60.       YES         
        1000013 .0028568 0.         YES 1000013 .0028568 0.         YES         
        1000013 .0028568 -60.       YES 1000013 .0028568 60.        YES         
        102     .0059638 0.         YES                                         
MAT8    1000013  7.98+7 682030.8.1975808562420.8562420.8281210.4.0652774        
        -7.056-71.9247-5 68.                                                    
MAT8    1000014 4.1443+72421217..2437896792815.2792815.2396407.6.0752321        
        1.9014-69.9808-6 68.                                                    
PCOMP   100008           0.                      68.                            
        101      .005    0.         YES                                         
        1000015 .0028609 60.        YES 1000015 .0028609 -60.       YES         
        1000015 .0028609 0.         YES 1000015 .0028609 0.         YES         
        1000015 .0028609 -60.       YES 1000015 .0028609 60.        YES         
        1000015 .0028609 60.        YES 1000015 .0028609 -60.       YES         
        1000015 .0028609 0.         YES 1000016 .0029881 0.         YES         
        1000016 .0029881 -60.       YES 1000016 .0029881 60.        YES         
        1000016 .0029881 60.        YES 1000016 .0029881 -60.       YES         
        1000016 .0029881 0.         YES 1000015 .0028609 0.         YES         
        1000015 .0028609 -60.       YES 1000015 .0028609 60.        YES         
        1000015 .0028609 60.        YES 1000015 .0028609 -60.       YES         
        1000015 .0028609 0.         YES 1000015 .0028609 0.         YES         
        1000015 .0028609 -60.       YES 1000015 .0028609 60.        YES         
        102     .0058609 0.         YES                                         
MAT8    1000015 7.9689+7681801.3.1978213 561244. 561244. 280622..0652439        
        -7.053-71.9282-5 68.                                                    
MAT8    1000016 4.1377+72412211..2439641789845.5789845.5394922.7.0751775        
         1.902-61.0027-5 68.                                                    
PCOMP   100009           0.                      68.                            
        101      .005    0.         YES                                         
        1000017 .0028567 60.        YES 1000017 .0028567 -60.       YES         
        1000017 .0028567 0.         YES 1000017 .0028567 0.         YES         
        1000017 .0028567 -60.       YES 1000017 .0028567 60.        YES         
        1000017 .0028567 60.        YES 1000017 .0028567 -60.       YES         
        1000017 .0028567 0.         YES 1000018 .0029831 0.         YES         
        1000018 .0029831 -60.       YES 1000018 .0029831 60.        YES         
        1000018 .0029831 60.        YES 1000018 .0029831 -60.       YES         
        1000018 .0029831 0.         YES 1000017 .0028567 0.         YES         
        1000017 .0028567 -60.       YES 1000017 .0028567 60.        YES         
        1000017 .0028567 60.        YES 1000017 .0028567 -60.       YES         
        1000017 .0028567 0.         YES 1000017 .0028567 0.         YES         
        1000017 .0028567 -60.       YES 1000017 .0028567 60.        YES         
        102     .0059831 0.         YES                                         
MAT8    1000017 7.9803+7682038.2.1975731562458.4562458.4281229.2.0652784        
        -7.056-71.9245-5 68.                                                    
MAT8    1000018 4.1445+72421506. .243784792910.6792910.6396455.3.0752339        
        1.9014-69.9793-6 68.                                                    
PCOMP   100010           0.                      68.                            
        101      .005    0.         YES                                         
        1000019 .0028604 60.        YES 1000019 .0028604 -60.       YES         
        1000019 .0028604 0.         YES 1000019 .0028604 0.         YES         
        1000019 .0028604 -60.       YES 1000019 .0028604 60.        YES         
        1000019 .0028604 60.        YES 1000019 .0028604 -60.       YES         
        1000019 .0028604 0.         YES 1000020 .0029875 0.         YES         
        1000020 .0029875 -60.       YES 1000020 .0029875 60.        YES         
        1000020 .0029875 60.        YES 1000020 .0029875 -60.       YES         
        1000020 .0029875 0.         YES 1000019 .0028604 0.         YES         
        1000019 .0028604 -60.       YES 1000019 .0028604 60.        YES         
        1000019 .0028604 60.        YES 1000019 .0028604 -60.       YES         
        1000019 .0028604 0.         YES 1000019 .0028604 0.         YES         
        1000019 .0028604 -60.       YES 1000019 .0028604 60.        YES         
        102     .0059539 0.         YES                                         
MAT8    1000019 7.9703+7 681831..1977902561396.3561396.3280698.2.0652482        
        -7.053-71.9277-5 68.                                                    
MAT8    1000020 4.1386+72413372..2439415790228.3790228.3395114.2.0751846        
         1.902-61.0021-5 68.                                                    
PCOMP   100011           0.                      68.                            
        101      .005    0.         YES                                         
        1000021 .0028611 60.        YES 1000021 .0028611 -60.       YES         
        1000021 .0028611 0.         YES 1000021 .0028611 0.         YES         
        1000021 .0028611 -60.       YES 1000021 .0028611 60.        YES         
        1000021 .0028611 60.        YES 1000021 .0028611 -60.       YES         
        1000021 .0028611 0.         YES 1000022 .0029883 0.         YES         
        1000022 .0029883 -60.       YES 1000022 .0029883 60.        YES         
        1000022 .0029883 60.        YES 1000022 .0029883 -60.       YES         
        1000022 .0029883 0.         YES 1000021 .0028611 0.         YES         
        1000021 .0028611 -60.       YES 1000021 .0028611 60.        YES         
        1000021 .0028611 60.        YES 1000021 .0028611 -60.       YES         
        1000021 .0028611 0.         YES 1000021 .0028611 0.         YES         
        1000021 .0028611 -60.       YES 1000021 .0028611 60.        YES         
        102     .0058397 0.         YES                                         
MAT8    1000021 7.9684+7681791.5.1978315561193.9561193.9280596.9.0652425        
        -7.053-71.9283-5 68.                                                    
MAT8    1000022 4.1374+72411829..2439715789719.5789719.5394859.7.0751751        
        1.9021-61.0029-5 68.                                                    
PCOMP   100012           0.                      68.                            
        101      .005    0.         YES                                         
        1000023 .0028614 60.        YES 1000023 .0028614 -60.       YES         
        1000023 .0028614 0.         YES 1000023 .0028614 0.         YES         
        1000023 .0028614 -60.       YES 1000023 .0028614 60.        YES         
        1000023 .0028614 60.        YES 1000023 .0028614 -60.       YES         
        1000023 .0028614 0.         YES 1000024 .0029887 0.         YES         
        1000024 .0029887 -60.       YES 1000024 .0029887 60.        YES         
        1000024 .0029887 60.        YES 1000024 .0029887 -60.       YES         
        1000024 .0029887 0.         YES 1000023 .0028614 0.         YES         
        1000023 .0028614 -60.       YES 1000023 .0028614 60.        YES         
        1000023 .0028614 60.        YES 1000023 .0028614 -60.       YES         
        1000023 .0028614 0.         YES 1000023 .0028614 0.         YES         
        1000023 .0028614 -60.       YES 1000023 .0028614 60.        YES         
        102     .0055875 0.         YES                                         
MAT8    1000023 7.9676+7681774.5.1978493 561107. 561107.280553.5 .06524         
        -7.053-71.9286-5 68.                                                    
MAT8    1000024  4.137+72411168..2439844789501.4789501.4394750.7.0751711        
        1.9021-61.0032-5 68.                                                    
PCOMP   100013           0.                      68.                            
        101      .005    0.         YES                                         
        1000025 .0028495 60.        YES 1000025 .0028495 -60.       YES         
        1000025 .0028495 0.         YES 1000025 .0028495 0.         YES         
        1000025 .0028495 -60.       YES 1000025 .0028495 60.        YES         
        1000025 .0028495 60.        YES 1000025 .0028495 -60.       YES         
        1000025 .0028495 0.         YES 1000026 .0029745 0.         YES         
        1000026 .0029745 -60.       YES 1000026 .0029745 60.        YES         
        1000026 .0029745 60.        YES 1000026 .0029745 -60.       YES         
        1000026 .0029745 0.         YES 1000025 .0028495 0.         YES         
        1000025 .0028495 -60.       YES 1000025 .0028495 60.        YES         
        1000025 .0028495 60.        YES 1000025 .0028495 -60.       YES         
        1000025 .0028495 0.         YES 1000025 .0028495 0.         YES         
        1000025 .0028495 -60.       YES 1000025 .0028495 60.        YES         
        102     .0058318 0.         YES                                         
MAT8    1000025 7.9999+7682443.6.1971482564536.8564536.8282268.4.0653375        
        -7.062-71.9184-5 68.                                                    
MAT8    1000026 4.1562+72437607..2434759798221.7798221.7399110.8.0753304        
        1.9002-69.8979-6 68.                                                    
PCOMP   100014           0.                      68.                            
        101      .005    0.         YES                                         
        1000027 .0028534 60.        YES 1000027 .0028534 -60.       YES         
        1000027 .0028534 0.         YES 1000027 .0028534 0.         YES         
        1000027 .0028534 -60.       YES 1000027 .0028534 60.        YES         
        1000027 .0028534 60.        YES 1000027 .0028534 -60.       YES         
        1000027 .0028534 0.         YES 1000028 .0029792 0.         YES         
        1000028 .0029792 -60.       YES 1000028 .0029792 60.        YES         
        1000028 .0029792 60.        YES 1000028 .0029792 -60.       YES         
        1000028 .0029792 0.         YES 1000027 .0028534 0.         YES         
        1000027 .0028534 -60.       YES 1000027 .0028534 60.        YES         
        1000027 .0028534 60.        YES 1000027 .0028534 -60.       YES         
        1000027 .0028534 0.         YES 1000027 .0028534 0.         YES         
        1000027 .0028534 -60.       YES 1000027 .0028534 60.        YES         
        102     .0057567 0.         YES                                         
MAT8    1000027 7.9892+7682221.3.1973812563397.2563397.2281698.6.0653051        
        -7.059-71.9217-5 68.                                                    
MAT8    1000028 4.1498+72428748..2436449795299.5795299.5397649.7.0752775        
        1.9009-69.9426-6 68.                                                    
PCOMP   100015           0.                      68.                            
        101      .005    0.         YES                                         
        1000029 .0028584 60.        YES 1000029 .0028584 -60.       YES         
        1000029 .0028584 0.         YES 1000029 .0028584 0.         YES         
        1000029 .0028584 -60.       YES 1000029 .0028584 60.        YES         
        1000029 .0028584 60.        YES 1000029 .0028584 -60.       YES         
        1000029 .0028584 0.         YES 1000030 .0029851 0.         YES         
        1000030 .0029851 -60.       YES 1000030 .0029851 60.        YES         
        1000030 .0029851 60.        YES 1000030 .0029851 -60.       YES         
        1000030 .0029851 0.         YES 1000029 .0028584 0.         YES         
        1000029 .0028584 -60.       YES 1000029 .0028584 60.        YES         
        1000029 .0028584 60.        YES 1000029 .0028584 -60.       YES         
        1000029 .0028584 0.         YES 1000029 .0028584 0.         YES         
        1000029 .0028584 -60.       YES 1000029 .0028584 60.        YES         
        102     .0061413 0.         YES                                         
MAT8    1000029 7.9758+7681943.6.1976721561973.7561973.7280986.8.0652647        
        -7.055-7 1.926-5 68.                                                    
MAT8    1000030 4.1418+72417786..2438559791683.9791683.9395841.9.0752114        
        1.9016-69.9983-6 68.                                                    
PCOMP   100016           0.                      68.                            
        101      .005    0.         YES                                         
        1000031 .0028735 60.        YES 1000031 .0028735 -60.       YES         
        1000031 .0028735 0.         YES 1000031 .0028735 0.         YES         
        1000031 .0028735 -60.       YES 1000031 .0028735 60.        YES         
        1000031 .0028735 60.        YES 1000031 .0028735 -60.       YES         
        1000031 .0028735 0.         YES 1000032 .0030032 0.         YES         
        1000032 .0030032 -60.       YES 1000032 .0030032 60.        YES         
        1000032 .0030032 60.        YES 1000032 .0030032 -60.       YES         
        1000032 .0030032 0.         YES 1000031 .0028735 0.         YES         
        1000031 .0028735 -60.       YES 1000031 .0028735 60.        YES         
        1000031 .0028735 60.        YES 1000031 .0028735 -60.       YES         
        1000031 .0028735 0.         YES 1000031 .0028735 0.         YES         
        1000031 .0028735 -60.       YES 1000031 .0028735 60.        YES         
        102     .0057637 0.         YES                                         
MAT8    1000031 7.9345+7681089.8.1985667557597.3557597.3278798.7.0651403        
        -7.043-7 1.939-5 68.                                                    
MAT8    1000032 4.1173+72384798..2445047780808.3780808.3390404.1.0750081        
         1.904-6 1.017-5 68.                                                    
PCOMP   100017           0.                      68.                            
        101      .005    0.         YES                                         
        1000033 .0028725 60.        YES 1000033 .0028725 -60.       YES         
        1000033 .0028725 0.         YES 1000033 .0028725 0.         YES         
        1000033 .0028725 -60.       YES 1000033 .0028725 60.        YES         
        1000033 .0028725 60.        YES 1000033 .0028725 -60.       YES         
        1000033 .0028725 0.         YES 1000034 .0030019 0.         YES         
        1000034 .0030019 -60.       YES 1000034 .0030019 60.        YES         
        1000034 .0030019 60.        YES 1000034 .0030019 -60.       YES         
        1000034 .0030019 0.         YES 1000033 .0028725 0.         YES         
        1000033 .0028725 -60.       YES 1000033 .0028725 60.        YES         
        1000033 .0028725 60.        YES 1000033 .0028725 -60.       YES         
        1000033 .0028725 0.         YES 1000033 .0028725 0.         YES         
        1000033 .0028725 -60.       YES 1000033 .0028725 60.        YES         
        102     .0057818 0.         YES                                         
MAT8    1000033 7.9374+7681150.4.1985032557907.8557907.8278953.9.0651491        
        -7.044-71.9381-5 68.                                                    
MAT8    1000034  4.119+72387103..2444587 781568. 781568. 390784..0750225        
        1.9039-61.0158-5 68.                                                    
PCOMP   100018           0.                      68.                            
        101      .005    0.         YES                                         
        1000035 .0028646 60.        YES 1000035 .0028646 -60.       YES         
        1000035 .0028646 0.         YES 1000035 .0028646 0.         YES         
        1000035 .0028646 -60.       YES 1000035 .0028646 60.        YES         
        1000035 .0028646 60.        YES 1000035 .0028646 -60.       YES         
        1000035 .0028646 0.         YES 1000036 .0029925 0.         YES         
        1000036 .0029925 -60.       YES 1000036 .0029925 60.        YES         
        1000036 .0029925 60.        YES 1000036 .0029925 -60.       YES         
        1000036 .0029925 0.         YES 1000035 .0028646 0.         YES         
        1000035 .0028646 -60.       YES 1000035 .0028646 60.        YES         
        1000035 .0028646 60.        YES 1000035 .0028646 -60.       YES         
        1000035 .0028646 0.         YES 1000035 .0028646 0.         YES         
        1000035 .0028646 -60.       YES 1000035 .0028646 60.        YES         
        102     .0057743 0.         YES                                         
MAT8    1000035 7.9588+7681592.4.1980401560173.6560173.6280086.8.0652135        
         -7.05-71.9313-5 68.                                                    
MAT8    1000036 4.1317+72404087..2441228787166.7787166.7393583.3.0751278        
        1.9026-61.0069-5 68.                                                    
PCOMP   100019           0.                      68.                            
        101      .005    0.         YES                                         
        1000037  .00286  60.        YES 1000037  .00286  -60.       YES         
        1000037  .00286  0.         YES 1000037  .00286  0.         YES         
        1000037  .00286  -60.       YES 1000037  .00286  60.        YES         
        1000037  .00286  60.        YES 1000037  .00286  -60.       YES         
        1000037  .00286  0.         YES 1000038 .0029871 0.         YES         
        1000038 .0029871 -60.       YES 1000038 .0029871 60.        YES         
        1000038 .0029871 60.        YES 1000038 .0029871 -60.       YES         
        1000038 .0029871 0.         YES 1000037  .00286  0.         YES         
        1000037  .00286  -60.       YES 1000037  .00286  60.        YES         
        1000037  .00286  60.        YES 1000037  .00286  -60.       YES         
        1000037  .00286  0.         YES 1000037  .00286  0.         YES         
        1000037  .00286  -60.       YES 1000037  .00286  60.        YES         
        102     .0060561 0.         YES                                         
MAT8    1000037 7.9713+7681850.5.1977697561496.4561496.4280748.2.0652511        
        -7.054-71.9274-5 68.                                                    
MAT8    1000038 4.1391+72414136..2439267790480.1790480.1 395240..0751892        
        1.9019-61.0017-5 68.                                                    
GRID    100001  1        12.1651 .39654  .9266351                               
GRID    100002  1        12.1077 .297172.91747441                               
GRID    100003  1        12.0503 .197804.90831381                               
GRID    100004  1        11.993  .098434.89921461                               
GRID    100005  1        12.2331 .514432.93758691                               
GRID    100006  1        12.3012 .63232  .9492661                               
GRID    100007  1        10.1649 .112754.64486971                               
GRID    100008  1        10.2305 .226311.65371131                               
GRID    100009  1        10.296  .339863.66254661                               
GRID    100010  1        10.3616 .45341 .67139521                               
GRID    111516  1        2.02388 -2.0422 .0507791                               
GRID    111517  1        2.19701-1.85465.05151671                               
GRID    111596  1        2.35274-1.65264.05170281                               
GRID    111012  1        12.4982-.212932.97732761                               
GRID    111595  1        12.4928-.425897.97726211                               
GRID    111515  1        12.4837-.638648.97735631                               
GRID    111597  1        12.4742-.803269.97735371                               
GRID    111013  1        12.4539-1.07266.97716261                               
GRID    111514  1        12.4278-1.34158 .9775461                               
GRID    111598  1        12.3959-1.60983.97767251                               
CQUAD4  121989  100012  111516  111596  111595  111517  .0374845                
CQUAD4  121990  100013  111596  111012  111517  111595  .0374574                
CQUAD4  121991  100014  111515  111597  111596  111516  .0374694                
CQUAD4  121992  100015  111597  111013  111012  111596  .0377237                
CQUAD4  121993  100016  111514  111598  111597  111515  .0377253                
CQUAD4  121994  100017  111598  111012  111013  111597  .0377208                
CQUAD4  121995  100018  111517  111595  111598  111514  .0376185                
CQUAD4  121996  100019  111595  111517  111012  111598  .0377018                
CTRIA3  100001  100002  100001  100006  100008  1       .0376002                
CTRIA3  100002  100003  100005  100003  100010  1       .0376068                
CTRIA3  100003  100004  100006  100007  100009  1       .0376053                
CTRIA3  100004  100005  100007  100003  100010  1       .0376355                
CTRIA3  100005  100006  100009  100007  100005  1       .0376164                
CTRIA3  100006  100007  100010  100002  100008  1       .0376155                
CTRIA3  100007  100008  100003  100005  100009  1       .0376152                
CTRIA3  100008  100009  100004  100009  100010  1       .0376235                
CTRIA3  100009  100010  100007  100003  100001  1       .0376551                
CTRIA3  100010  100011  100005  100003  100010  1       .0376068                
